Circuit: * C:\Users\mdaut\Documents\Sparkdog PF-DI V3\Sparkdog PF-DI V3\dbw_failsafe.asc

Direct Newton iteration for .op point succeeded.

Date: Fri Apr 30 08:21:20 2021
Total elapsed time: 0.103 seconds.

tnom = 27
temp = 27
method = modified trap
totiter = 2137
traniter = 2096
tranpoints = 1049
accept = 1049
rejected = 0
matrix size = 19
fillins = 7
solver = Normal
Matrix Compiler1: 1.22 KB object code size  0.3/0.2/[0.1]
Matrix Compiler2: 1.71 KB object code size  0.2/0.3/[0.2]

